L24/1726523/Cargas.dss
! ==========================================================
! CARGAS — mes 01
! BT: UCBT_tab agregada por transformador (kW = ENE/730 h)
! MT: UCMT_tab individual no PAC do consumidor
! fator de escala aplicado: 1
! 1 cargas de MT descartadas por PAC ausente da rede.
! ==========================================================
New Load.BT_338061601_2274506057_1 Bus1=node_418400952.1.4 Phases=1 Model=8 zipv=(0.5,0,0.5,1,0,0,0) kv=0.1270 pf=0.92 kW=7.643836 Daily=RES1_25
New Load.BT_338061601_2274506057_2 Bus1=node_418400952.2.4 Phases=1 Model=8 zipv=(0.5,0,0.5,1,0,0,0) kv=0.1270 pf=0.92 kW=7.643836 Daily=RES1_25
New Load.BT_338061601_2274506057_3 Bus1=node_418400952.3.4 Phases=1 Model=8 zipv=(0.5,0,0.5,1,0,0,0) kv=0.1270 pf=0.92 kW=7.643836 Daily=RES1_25
New Load.BT_338289135_1554904643_1 Bus1=node_418380452.1.4 Phases=1 Model=8 zipv=(0.5,0,0.5,1,0,0,0) kv=0.1270 pf=0.92 kW=6.993607 Daily=RES1_25
New Load.BT_338289135_1554904643_2 Bus1=node_418380452.2.4 Phases=1 Model=8 zipv=(0.5,0,0.5,1,0,0,0) kv=0.1270 pf=0.92 kW=6.993607 Daily=RES1_25
New Load.BT_338289135_1554904643_3 Bus1=node_418380452.3.4 Phases=1 Model=8 zipv=(0.5,0,0.5,1,0,0,0) kv=0.1270 pf=0.92 kW=6.993607 Daily=RES1_25
New Load.BT_337852159_2588604062_1 Bus1=node_418315574.1.4 Phases=1 Model=8 zipv=(0.5,0,0.5,1,0,0,0) kv=0.1270 pf=0.92 kW=4.684475 Daily=RES1_25
New Load.BT_337852159_2588604062_2 Bus1=node_418315574.2.4 Phases=1 Model=8 zipv=(0.5,0,0.5,1,0,0,0) kv=0.1270 pf=0.92 kW=4.684475 Daily=RES1_25
New Load.BT_337852159_2588604062_3 Bus1=node_418315574.3.4 Phases=1 Model=8 zipv=(0.5,0,0.5,1,0,0,0) kv=0.1270 pf=0.92 kW=4.684475 Daily=RES1_25
New Load.BT_338060525_339027448_1 Bus1=node_419459417.1.4 Phases=1 Model=8 zipv=(0.5,0,0.5,1,0,0,0) kv=0.1200 pf=0.92 kW=0.014384 Daily=RES1_25
New Load.BT_338060525_339027448_2 Bus1=node_419459417.2.4 Phases=1 Model=8 zipv=(0.5,0,0.5,1,0,0,0) kv=0.1200 pf=0.92 kW=0.014384 Daily=RES1_25
New Load.BT_338060295_339050180_1 Bus1=node_418362833.1.4 Phases=1 Model=8 zipv=(0.5,0,0.5,1,0,0,0) kv=0.1270 pf=0.92 kW=9.421005 Daily=RES1_25
New Load.BT_338060295_339050180_2 Bus1=node_418362833.2.4 Phases=1 Model=8 zipv=(0.5,0,0.5,1,0,0,0) kv=0.1270 pf=0.92 kW=9.421005 Daily=RES1_25
New Load.BT_338060295_339050180_3 Bus1=node_418362833.3.4 Phases=1 Model=8 zipv=(0.5,0,0.5,1,0,0,0) kv=0.1270 pf=0.92 kW=9.421005 Daily=RES1_25
New Load.BT_338285944_339051618_1 Bus1=node_419689304.1.4 Phases=1 Model=8 zipv=(0.5,0,0.5,1,0,0,0) kv=0.1200 pf=0.92 kW=0.506164 Daily=RES1_25
New Load.BT_338285944_339051618_2 Bus1=node_419689304.2.4 Phases=1 Model=8 zipv=(0.5,0,0.5,1,0,0,0) kv=0.1200 pf=0.92 kW=0.506164 Daily=RES1_25
New Load.BT_337854381_338959775_1 Bus1=node_418400817.1.4 Phases=1 Model=8 zipv=(0.5,0,0.5,1,0,0,0) kv=0.1200 pf=0.92 kW=10.108219 Daily=RES1_25
New Load.BT_337854381_338959775_2 Bus1=node_418400817.2.4 Phases=1 Model=8 zipv=(0.5,0,0.5,1,0,0,0) kv=0.1200 pf=0.92 kW=10.108219 Daily=RES1_25
New Load.BT_338288450_339001968_1 Bus1=node_418313894.1.4 Phases=1 Model=8 zipv=(0.5,0,0.5,1,0,0,0) kv=0.1200 pf=0.92 kW=5.321233 Daily=RES1_25
New Load.BT_338288450_339001968_2 Bus1=node_418313894.2.4 Phases=1 Model=8 zipv=(0.5,0,0.5,1,0,0,0) kv=0.1200 pf=0.92 kW=5.321233 Daily=RES1_25
New Load.BT_1581789420_1581789421_1 Bus1=node_465404469.1.4 Phases=1 Model=8 zipv=(0.5,0,0.5,1,0,0,0) kv=0.1270 pf=0.92 kW=10.281279 Daily=RES1_25
New Load.BT_1581789420_1581789421_2 Bus1=node_465404469.2.4 Phases=1 Model=8 zipv=(0.5,0,0.5,1,0,0,0) kv=0.1270 pf=0.92 kW=10.281279 Daily=RES1_25
New Load.BT_1581789420_1581789421_3 Bus1=node_465404469.3.4 Phases=1 Model=8 zipv=(0.5,0,0.5,1,0,0,0) kv=0.1270 pf=0.92 kW=10.281279 Daily=RES1_25
New Load.BT_337855702_339026450_1 Bus1=node_419450864.1.4 Phases=1 Model=8 zipv=(0.5,0,0.5,1,0,0,0) kv=0.1200 pf=0.92 kW=0.233562 Daily=RES1_25
New Load.BT_337855702_339026450_2 Bus1=node_419450864.2.4 Phases=1 Model=8 zipv=(0.5,0,0.5,1,0,0,0) kv=0.1200 pf=0.92 kW=0.233562 Daily=RES1_25
New Load.BT_336911049_574563383_1 Bus1=node_418360145.1.4 Phases=1 Model=8 zipv=(0.5,0,0.5,1,0,0,0) kv=0.1270 pf=0.92 kW=10.543836 Daily=RES1_25
New Load.BT_336911049_574563383_2 Bus1=node_418360145.2.4 Phases=1 Model=8 zipv=(0.5,0,0.5,1,0,0,0) kv=0.1270 pf=0.92 kW=10.543836 Daily=RES1_25
New Load.BT_336911049_574563383_3 Bus1=node_418360145.3.4 Phases=1 Model=8 zipv=(0.5,0,0.5,1,0,0,0) kv=0.1270 pf=0.92 kW=10.543836 Daily=RES1_25
New Load.BT_338062027_338961677_1 Bus1=node_418292971.1.4 Phases=1 Model=8 zipv=(0.5,0,0.5,1,0,0,0) kv=0.1200 pf=0.92 kW=3.601370 Daily=RES1_25
New Load.BT_338062027_338961677_2 Bus1=node_418292971.2.4 Phases=1 Model=8 zipv=(0.5,0,0.5,1,0,0,0) kv=0.1200 pf=0.92 kW=3.601370 Daily=RES1_25
New Load.BT_338288905_1847034042_1 Bus1=node_418364366.1.4 Phases=1 Model=8 zipv=(0.5,0,0.5,1,0,0,0) kv=0.1270 pf=0.92 kW=9.058447 Daily=RES1_25
New Load.BT_338288905_1847034042_2 Bus1=node_418364366.2.4 Phases=1 Model=8 zipv=(0.5,0,0.5,1,0,0,0) kv=0.1270 pf=0.92 kW=9.058447 Daily=RES1_25
New Load.BT_338288905_1847034042_3 Bus1=node_418364366.3.4 Phases=1 Model=8 zipv=(0.5,0,0.5,1,0,0,0) kv=0.1270 pf=0.92 kW=9.058447 Daily=RES1_25
New Load.BT_337609076_339025349_1 Bus1=node_418399467.1.4 Phases=1 Model=8 zipv=(0.5,0,0.5,1,0,0,0) kv=0.1270 pf=0.92 kW=2.485845 Daily=RES1_25
New Load.BT_337609076_339025349_2 Bus1=node_418399467.2.4 Phases=1 Model=8 zipv=(0.5,0,0.5,1,0,0,0) kv=0.1270 pf=0.92 kW=2.485845 Daily=RES1_25
New Load.BT_337609076_339025349_3 Bus1=node_418399467.3.4 Phases=1 Model=8 zipv=(0.5,0,0.5,1,0,0,0) kv=0.1270 pf=0.92 kW=2.485845 Daily=RES1_25
New Load.BT_338286415_339052019_1 Bus1=node_418637645.1.4 Phases=1 Model=8 zipv=(0.5,0,0.5,1,0,0,0) kv=0.1200 pf=0.92 kW=0.190411 Daily=RES1_25
New Load.BT_338286415_339052019_2 Bus1=node_418637645.2.4 Phases=1 Model=8 zipv=(0.5,0,0.5,1,0,0,0) kv=0.1200 pf=0.92 kW=0.190411 Daily=RES1_25
New Load.BT_337852360_338525111_1 Bus1=node_418313924.1.4 Phases=1 Model=8 zipv=(0.5,0,0.5,1,0,0,0) kv=0.1270 pf=0.92 kW=4.072146 Daily=RES1_25
New Load.BT_337852360_338525111_2 Bus1=node_418313924.2.4 Phases=1 Model=8 zipv=(0.5,0,0.5,1,0,0,0) kv=0.1270 pf=0.92 kW=4.072146 Daily=RES1_25
New Load.BT_337852360_338525111_3 Bus1=node_418313924.3.4 Phases=1 Model=8 zipv=(0.5,0,0.5,1,0,0,0) kv=0.1270 pf=0.92 kW=4.072146 Daily=RES1_25
New Load.BT_325060243_325344147_1 Bus1=node_418068099.1.4 Phases=1 Model=8 zipv=(0.5,0,0.5,1,0,0,0) kv=0.1270 pf=0.92 kW=2.279452 Daily=RES1_25
New Load.BT_325060243_325344147_2 Bus1=node_418068099.2.4 Phases=1 Model=8 zipv=(0.5,0,0.5,1,0,0,0) kv=0.1270 pf=0.92 kW=2.279452 Daily=RES1_25
New Load.BT_325060243_325344147_3 Bus1=node_418068099.3.4 Phases=1 Model=8 zipv=(0.5,0,0.5,1,0,0,0) kv=0.1270 pf=0.92 kW=2.279452 Daily=RES1_25
New Load.BT_337608538_2622368529_1 Bus1=node_418315463.1.4 Phases=1 Model=8 zipv=(0.5,0,0.5,1,0,0,0) kv=0.1270 pf=0.92 kW=5.303653 Daily=RES1_25
New Load.BT_337608538_2622368529_2 Bus1=node_418315463.2.4 Phases=1 Model=8 zipv=(0.5,0,0.5,1,0,0,0) kv=0.1270 pf=0.92 kW=5.303653 Daily=RES1_25
New Load.BT_337608538_2622368529_3 Bus1=node_418315463.3.4 Phases=1 Model=8 zipv=(0.5,0,0.5,1,0,0,0) kv=0.1270 pf=0.92 kW=5.303653 Daily=RES1_25
New Load.BT_337853510_338525057_1 Bus1=node_418399473.1.4 Phases=1 Model=8 zipv=(0.5,0,0.5,1,0,0,0) kv=0.1270 pf=0.92 kW=12.794064 Daily=RES1_25
New Load.BT_337853510_338525057_2 Bus1=node_418399473.2.4 Phases=1 Model=8 zipv=(0.5,0,0.5,1,0,0,0) kv=0.1270 pf=0.92 kW=12.794064 Daily=RES1_25
New Load.BT_337853510_338525057_3 Bus1=node_418399473.3.4 Phases=1 Model=8 zipv=(0.5,0,0.5,1,0,0,0) kv=0.1270 pf=0.92 kW=12.794064 Daily=RES1_25
New Load.BT_337853222_339050167_1 Bus1=node_418402974.1.4 Phases=1 Model=8 zipv=(0.5,0,0.5,1,0,0,0) kv=0.1270 pf=0.92 kW=4.099087 Daily=RES1_25
New Load.BT_337853222_339050167_2 Bus1=node_418402974.2.4 Phases=1 Model=8 zipv=(0.5,0,0.5,1,0,0,0) kv=0.1270 pf=0.92 kW=4.099087 Daily=RES1_25
New Load.BT_337853222_339050167_3 Bus1=node_418402974.3.4 Phases=1 Model=8 zipv=(0.5,0,0.5,1,0,0,0) kv=0.1270 pf=0.92 kW=4.099087 Daily=RES1_25
New Load.BT_338524388_339062839_1 Bus1=node_419622751.1.4 Phases=1 Model=8 zipv=(0.5,0,0.5,1,0,0,0) kv=0.1200 pf=0.92 kW=0.517123 Daily=RES1_25
New Load.BT_338524388_339062839_2 Bus1=node_419622751.2.4 Phases=1 Model=8 zipv=(0.5,0,0.5,1,0,0,0) kv=0.1200 pf=0.92 kW=0.517123 Daily=RES1_25
New Load.BT_338059804_338960391_1 Bus1=node_1179544679.1.4 Phases=1 Model=8 zipv=(0.5,0,0.5,1,0,0,0) kv=0.1200 pf=0.92 kW=0.228767 Daily=RES1_25
New Load.BT_338059804_338960391_2 Bus1=node_1179544679.2.4 Phases=1 Model=8 zipv=(0.5,0,0.5,1,0,0,0) kv=0.1200 pf=0.92 kW=0.228767 Daily=RES1_25
New Load.BT_337609586_339027794_1 Bus1=node_419174840.1.4 Phases=1 Model=8 zipv=(0.5,0,0.5,1,0,0,0) kv=0.1200 pf=0.92 kW=0.067123 Daily=RES1_25
New Load.BT_337609586_339027794_2 Bus1=node_419174840.2.4 Phases=1 Model=8 zipv=(0.5,0,0.5,1,0,0,0) kv=0.1200 pf=0.92 kW=0.067123 Daily=RES1_25
New Load.BT_338058408_339027103_1 Bus1=node_419997602.1.4 Phases=1 Model=8 zipv=(0.5,0,0.5,1,0,0,0) kv=0.1200 pf=0.92 kW=0.263699 Daily=RES1_25
New Load.BT_338058408_339027103_2 Bus1=node_419997602.2.4 Phases=1 Model=8 zipv=(0.5,0,0.5,1,0,0,0) kv=0.1200 pf=0.92 kW=0.263699 Daily=RES1_25
New Load.BT_338286405_339001948_1 Bus1=node_418401027.1.4 Phases=1 Model=8 zipv=(0.5,0,0.5,1,0,0,0) kv=0.1270 pf=0.92 kW=8.413242 Daily=RES1_25
New Load.BT_338286405_339001948_2 Bus1=node_418401027.2.4 Phases=1 Model=8 zipv=(0.5,0,0.5,1,0,0,0) kv=0.1270 pf=0.92 kW=8.413242 Daily=RES1_25
New Load.BT_338286405_339001948_3 Bus1=node_418401027.3.4 Phases=1 Model=8 zipv=(0.5,0,0.5,1,0,0,0) kv=0.1270 pf=0.92 kW=8.413242 Daily=RES1_25
New Load.BT_338523518_339050181_1 Bus1=node_418364375.1.4 Phases=1 Model=8 zipv=(0.5,0,0.5,1,0,0,0) kv=0.1270 pf=0.92 kW=5.310959 Daily=RES1_25
New Load.BT_338523518_339050181_2 Bus1=node_418364375.2.4 Phases=1 Model=8 zipv=(0.5,0,0.5,1,0,0,0) kv=0.1270 pf=0.92 kW=5.310959 Daily=RES1_25
New Load.BT_338523518_339050181_3 Bus1=node_418364375.3.4 Phases=1 Model=8 zipv=(0.5,0,0.5,1,0,0,0) kv=0.1270 pf=0.92 kW=5.310959 Daily=RES1_25
New Load.BT_324932944_325373872_1 Bus1=node_418064181.1.4 Phases=1 Model=8 zipv=(0.5,0,0.5,1,0,0,0) kv=0.1270 pf=0.92 kW=4.056164 Daily=RES1_25
New Load.BT_324932944_325373872_2 Bus1=node_418064181.2.4 Phases=1 Model=8 zipv=(0.5,0,0.5,1,0,0,0) kv=0.1270 pf=0.92 kW=4.056164 Daily=RES1_25
New Load.BT_324932944_325373872_3 Bus1=node_418064181.3.4 Phases=1 Model=8 zipv=(0.5,0,0.5,1,0,0,0) kv=0.1270 pf=0.92 kW=4.056164 Daily=RES1_25
New Load.BT_337853801_338998470_1 Bus1=node_418315466.1.4 Phases=1 Model=8 zipv=(0.5,0,0.5,1,0,0,0) kv=0.1270 pf=0.92 kW=3.343379 Daily=RES1_25
New Load.BT_337853801_338998470_2 Bus1=node_418315466.2.4 Phases=1 Model=8 zipv=(0.5,0,0.5,1,0,0,0) kv=0.1270 pf=0.92 kW=3.343379 Daily=RES1_25
New Load.BT_337853801_338998470_3 Bus1=node_418315466.3.4 Phases=1 Model=8 zipv=(0.5,0,0.5,1,0,0,0) kv=0.1270 pf=0.92 kW=3.343379 Daily=RES1_25
New Load.BT_887033157_887033156_1 Bus1=node_418378253.1.4 Phases=1 Model=8 zipv=(0.5,0,0.5,1,0,0,0) kv=0.1270 pf=0.92 kW=5.821461 Daily=RES1_25
New Load.BT_887033157_887033156_2 Bus1=node_418378253.2.4 Phases=1 Model=8 zipv=(0.5,0,0.5,1,0,0,0) kv=0.1270 pf=0.92 kW=5.821461 Daily=RES1_25
New Load.BT_887033157_887033156_3 Bus1=node_418378253.3.4 Phases=1 Model=8 zipv=(0.5,0,0.5,1,0,0,0) kv=0.1270 pf=0.92 kW=5.821461 Daily=RES1_25
New Load.BT_337852320_339063180_1 Bus1=node_419207178.1.4 Phases=1 Model=8 zipv=(0.5,0,0.5,1,0,0,0) kv=0.1200 pf=0.92 kW=0.162329 Daily=RES1_25
New Load.BT_337852320_339063180_2 Bus1=node_419207178.2.4 Phases=1 Model=8 zipv=(0.5,0,0.5,1,0,0,0) kv=0.1200 pf=0.92 kW=0.162329 Daily=RES1_25
New Load.BT_336911116_339053166_1 Bus1=node_418402968.1.4 Phases=1 Model=8 zipv=(0.5,0,0.5,1,0,0,0) kv=0.1270 pf=0.92 kW=3.083105 Daily=RES1_25
New Load.BT_336911116_339053166_2 Bus1=node_418402968.2.4 Phases=1 Model=8 zipv=(0.5,0,0.5,1,0,0,0) kv=0.1270 pf=0.92 kW=3.083105 Daily=RES1_25
New Load.BT_336911116_339053166_3 Bus1=node_418402968.3.4 Phases=1 Model=8 zipv=(0.5,0,0.5,1,0,0,0) kv=0.1270 pf=0.92 kW=3.083105 Daily=RES1_25
New Load.BT_337852387_339051256_1 Bus1=node_418401543.1.4 Phases=1 Model=8 zipv=(0.5,0,0.5,1,0,0,0) kv=0.1270 pf=0.92 kW=9.668493 Daily=RES1_25
New Load.BT_337852387_339051256_2 Bus1=node_418401543.2.4 Phases=1 Model=8 zipv=(0.5,0,0.5,1,0,0,0) kv=0.1270 pf=0.92 kW=9.668493 Daily=RES1_25
New Load.BT_337852387_339051256_3 Bus1=node_418401543.3.4 Phases=1 Model=8 zipv=(0.5,0,0.5,1,0,0,0) kv=0.1270 pf=0.92 kW=9.668493 Daily=RES1_25
New Load.BT_337853393_339025342_1 Bus1=node_418400820.1.4 Phases=1 Model=8 zipv=(0.5,0,0.5,1,0,0,0) kv=0.1200 pf=0.92 kW=4.267123 Daily=RES1_25
New Load.BT_337853393_339025342_2 Bus1=node_418400820.2.4 Phases=1 Model=8 zipv=(0.5,0,0.5,1,0,0,0) kv=0.1200 pf=0.92 kW=4.267123 Daily=RES1_25
New Load.BT_338523105_338525074_1 Bus1=node_418335123.1.4 Phases=1 Model=8 zipv=(0.5,0,0.5,1,0,0,0) kv=0.1270 pf=0.92 kW=4.343379 Daily=RES1_25
New Load.BT_338523105_338525074_2 Bus1=node_418335123.2.4 Phases=1 Model=8 zipv=(0.5,0,0.5,1,0,0,0) kv=0.1270 pf=0.92 kW=4.343379 Daily=RES1_25
New Load.BT_338523105_338525074_3 Bus1=node_418335123.3.4 Phases=1 Model=8 zipv=(0.5,0,0.5,1,0,0,0) kv=0.1270 pf=0.92 kW=4.343379 Daily=RES1_25
New Load.BT_338289638_339050183_1 Bus1=node_418316918.1.4 Phases=1 Model=8 zipv=(0.5,0,0.5,1,0,0,0) kv=0.1270 pf=0.92 kW=7.234703 Daily=RES1_25
New Load.BT_338289638_339050183_2 Bus1=node_418316918.2.4 Phases=1 Model=8 zipv=(0.5,0,0.5,1,0,0,0) kv=0.1270 pf=0.92 kW=7.234703 Daily=RES1_25
New Load.BT_338289638_339050183_3 Bus1=node_418316918.3.4 Phases=1 Model=8 zipv=(0.5,0,0.5,1,0,0,0) kv=0.1270 pf=0.92 kW=7.234703 Daily=RES1_25
New Load.BT_338285767_338961477_1 Bus1=node_419175047.1.4 Phases=1 Model=8 zipv=(0.5,0,0.5,1,0,0,0) kv=0.1200 pf=0.92 kW=0.046575 Daily=RES1_25
New Load.BT_338285767_338961477_2 Bus1=node_419175047.2.4 Phases=1 Model=8 zipv=(0.5,0,0.5,1,0,0,0) kv=0.1200 pf=0.92 kW=0.046575 Daily=RES1_25
New Load.BT_337608805_339053170_1 Bus1=node_418401537.1.4 Phases=1 Model=8 zipv=(0.5,0,0.5,1,0,0,0) kv=0.1200 pf=0.92 kW=7.508904 Daily=RES1_25
New Load.BT_337608805_339053170_2 Bus1=node_418401537.2.4 Phases=1 Model=8 zipv=(0.5,0,0.5,1,0,0,0) kv=0.1200 pf=0.92 kW=7.508904 Daily=RES1_25
New Load.BT_338524220_2638577262_1 Bus1=node_418335363.1.4 Phases=1 Model=8 zipv=(0.5,0,0.5,1,0,0,0) kv=0.1270 pf=0.92 kW=9.804110 Daily=RES1_25
New Load.BT_338524220_2638577262_2 Bus1=node_418335363.2.4 Phases=1 Model=8 zipv=(0.5,0,0.5,1,0,0,0) kv=0.1270 pf=0.92 kW=9.804110 Daily=RES1_25
New Load.BT_338524220_2638577262_3 Bus1=node_418335363.3.4 Phases=1 Model=8 zipv=(0.5,0,0.5,1,0,0,0) kv=0.1270 pf=0.92 kW=9.804110 Daily=RES1_25
New Load.BT_337607876_338961155_1 Bus1=node_419656165.1.4 Phases=1 Model=8 zipv=(0.5,0,0.5,1,0,0,0) kv=0.1200 pf=0.92 kW=0.210274 Daily=RES1_25
New Load.BT_337607876_338961155_2 Bus1=node_419656165.2.4 Phases=1 Model=8 zipv=(0.5,0,0.5,1,0,0,0) kv=0.1200 pf=0.92 kW=0.210274 Daily=RES1_25
New Load.BT_338289099_2136213472_1 Bus1=node_418313090.1.4 Phases=1 Model=8 zipv=(0.5,0,0.5,1,0,0,0) kv=0.1200 pf=0.92 kW=2.263014 Daily=RES1_25
New Load.BT_338289099_2136213472_2 Bus1=node_418313090.2.4 Phases=1 Model=8 zipv=(0.5,0,0.5,1,0,0,0) kv=0.1200 pf=0.92 kW=2.263014 Daily=RES1_25
New Load.BT_338524184_338962318_1 Bus1=node_418377554.1.4 Phases=1 Model=8 zipv=(0.5,0,0.5,1,0,0,0) kv=0.1270 pf=0.92 kW=11.596347 Daily=RES1_25
New Load.BT_338524184_338962318_2 Bus1=node_418377554.2.4 Phases=1 Model=8 zipv=(0.5,0,0.5,1,0,0,0) kv=0.1270 pf=0.92 kW=11.596347 Daily=RES1_25
New Load.BT_338524184_338962318_3 Bus1=node_418377554.3.4 Phases=1 Model=8 zipv=(0.5,0,0.5,1,0,0,0) kv=0.1270 pf=0.92 kW=11.596347 Daily=RES1_25
New Load.BT_337608024_1430310044_1 Bus1=node_418801021.1.4 Phases=1 Model=8 zipv=(0.5,0,0.5,1,0,0,0) kv=0.1200 pf=0.92 kW=0.097945 Daily=RES1_25
New Load.BT_337608024_1430310044_2 Bus1=node_418801021.2.4 Phases=1 Model=8 zipv=(0.5,0,0.5,1,0,0,0) kv=0.1200 pf=0.92 kW=0.097945 Daily=RES1_25
New Load.BT_575838680_575838679_1 Bus1=node_843926233.1.4 Phases=1 Model=8 zipv=(0.5,0,0.5,1,0,0,0) kv=0.1200 pf=0.92 kW=0.284247 Daily=RES1_25
New Load.BT_575838680_575838679_2 Bus1=node_843926233.2.4 Phases=1 Model=8 zipv=(0.5,0,0.5,1,0,0,0) kv=0.1200 pf=0.92 kW=0.284247 Daily=RES1_25
New Load.BT_1506867660_1506867659_1 Bus1=node_419825418.1.4 Phases=1 Model=8 zipv=(0.5,0,0.5,1,0,0,0) kv=0.1200 pf=0.92 kW=0.464384 Daily=RES1_25
New Load.BT_1506867660_1506867659_2 Bus1=node_419825418.2.4 Phases=1 Model=8 zipv=(0.5,0,0.5,1,0,0,0) kv=0.1200 pf=0.92 kW=0.464384 Daily=RES1_25
New Load.BT_337856143_338960834_1 Bus1=node_419997950.1.4 Phases=1 Model=8 zipv=(0.5,0,0.5,1,0,0,0) kv=0.1200 pf=0.92 kW=0.178082 Daily=RES1_25
New Load.BT_337856143_338960834_2 Bus1=node_419997950.2.4 Phases=1 Model=8 zipv=(0.5,0,0.5,1,0,0,0) kv=0.1200 pf=0.92 kW=0.178082 Daily=RES1_25
New Load.BT_337855685_339054015_1 Bus1=node_416127262.1.4 Phases=1 Model=8 zipv=(0.5,0,0.5,1,0,0,0) kv=0.1200 pf=0.92 kW=0.384247 Daily=RES1_25
New Load.BT_337855685_339054015_2 Bus1=node_416127262.2.4 Phases=1 Model=8 zipv=(0.5,0,0.5,1,0,0,0) kv=0.1200 pf=0.92 kW=0.384247 Daily=RES1_25
New Load.BT_337610497_339025345_1 Bus1=node_419035045.1.4 Phases=1 Model=8 zipv=(0.5,0,0.5,1,0,0,0) kv=0.1270 pf=0.92 kW=6.125571 Daily=RES1_25
New Load.BT_337610497_339025345_2 Bus1=node_419035045.2.4 Phases=1 Model=8 zipv=(0.5,0,0.5,1,0,0,0) kv=0.1270 pf=0.92 kW=6.125571 Daily=RES1_25
New Load.BT_337610497_339025345_3 Bus1=node_419035045.3.4 Phases=1 Model=8 zipv=(0.5,0,0.5,1,0,0,0) kv=0.1270 pf=0.92 kW=6.125571 Daily=RES1_25
New Load.BT_324639198_325325443_1 Bus1=node_418065924.1.4 Phases=1 Model=8 zipv=(0.5,0,0.5,1,0,0,0) kv=0.1270 pf=0.92 kW=3.557534 Daily=RES1_25
New Load.BT_324639198_325325443_2 Bus1=node_418065924.2.4 Phases=1 Model=8 zipv=(0.5,0,0.5,1,0,0,0) kv=0.1270 pf=0.92 kW=3.557534 Daily=RES1_25
New Load.BT_324639198_325325443_3 Bus1=node_418065924.3.4 Phases=1 Model=8 zipv=(0.5,0,0.5,1,0,0,0) kv=0.1270 pf=0.92 kW=3.557534 Daily=RES1_25
New Load.BT_338286965_339054160_1 Bus1=node_419825604.1.4 Phases=1 Model=8 zipv=(0.5,0,0.5,1,0,0,0) kv=0.1200 pf=0.92 kW=0.294521 Daily=RES1_25
New Load.BT_338286965_339054160_2 Bus1=node_419825604.2.4 Phases=1 Model=8 zipv=(0.5,0,0.5,1,0,0,0) kv=0.1200 pf=0.92 kW=0.294521 Daily=RES1_25
New Load.BT_338286386_339000698_1 Bus1=node_419626792.1.4 Phases=1 Model=8 zipv=(0.5,0,0.5,1,0,0,0) kv=0.1200 pf=0.92 kW=0.197260 Daily=RES1_25
New Load.BT_338286386_339000698_2 Bus1=node_419626792.2.4 Phases=1 Model=8 zipv=(0.5,0,0.5,1,0,0,0) kv=0.1200 pf=0.92 kW=0.197260 Daily=RES1_25
New Load.BT_336911272_339050194_1 Bus1=node_418315553.1.4 Phases=1 Model=8 zipv=(0.5,0,0.5,1,0,0,0) kv=0.1200 pf=0.92 kW=5.949315 Daily=RES1_25
New Load.BT_336911272_339050194_2 Bus1=node_418315553.2.4 Phases=1 Model=8 zipv=(0.5,0,0.5,1,0,0,0) kv=0.1200 pf=0.92 kW=5.949315 Daily=RES1_25
New Load.BT_338288357_339054158_1 Bus1=node_423648359.1.4 Phases=1 Model=8 zipv=(0.5,0,0.5,1,0,0,0) kv=0.1200 pf=0.92 kW=0.213699 Daily=RES1_25
New Load.BT_338288357_339054158_2 Bus1=node_423648359.2.4 Phases=1 Model=8 zipv=(0.5,0,0.5,1,0,0,0) kv=0.1200 pf=0.92 kW=0.213699 Daily=RES1_25
New Load.BT_338521958_339001949_1 Bus1=node_418378211.1.4 Phases=1 Model=8 zipv=(0.5,0,0.5,1,0,0,0) kv=0.1270 pf=0.92 kW=4.284475 Daily=RES1_25
New Load.BT_338521958_339001949_2 Bus1=node_418378211.2.4 Phases=1 Model=8 zipv=(0.5,0,0.5,1,0,0,0) kv=0.1270 pf=0.92 kW=4.284475 Daily=RES1_25
New Load.BT_338521958_339001949_3 Bus1=node_418378211.3.4 Phases=1 Model=8 zipv=(0.5,0,0.5,1,0,0,0) kv=0.1270 pf=0.92 kW=4.284475 Daily=RES1_25
New Load.BT_338058145_339002055_1 Bus1=node_418402965.1.4 Phases=1 Model=8 zipv=(0.5,0,0.5,1,0,0,0) kv=0.1270 pf=0.92 kW=4.046575 Daily=RES1_25
New Load.BT_338058145_339002055_2 Bus1=node_418402965.2.4 Phases=1 Model=8 zipv=(0.5,0,0.5,1,0,0,0) kv=0.1270 pf=0.92 kW=4.046575 Daily=RES1_25
New Load.BT_338058145_339002055_3 Bus1=node_418402965.3.4 Phases=1 Model=8 zipv=(0.5,0,0.5,1,0,0,0) kv=0.1270 pf=0.92 kW=4.046575 Daily=RES1_25
New Load.BT_338288621_339000661_1 Bus1=node_419687267.1.4 Phases=1 Model=8 zipv=(0.5,0,0.5,1,0,0,0) kv=0.1200 pf=0.92 kW=0.206164 Daily=RES1_25
New Load.BT_338288621_339000661_2 Bus1=node_419687267.2.4 Phases=1 Model=8 zipv=(0.5,0,0.5,1,0,0,0) kv=0.1200 pf=0.92 kW=0.206164 Daily=RES1_25
New Load.BT_337855554_339000499_1 Bus1=node_419896925.1.4 Phases=1 Model=8 zipv=(0.5,0,0.5,1,0,0,0) kv=0.1200 pf=0.92 kW=0.307534 Daily=RES1_25
New Load.BT_337855554_339000499_2 Bus1=node_419896925.2.4 Phases=1 Model=8 zipv=(0.5,0,0.5,1,0,0,0) kv=0.1200 pf=0.92 kW=0.307534 Daily=RES1_25
New Load.BT_337608678_339002059_1 Bus1=node_418402143.1.4 Phases=1 Model=8 zipv=(0.5,0,0.5,1,0,0,0) kv=0.1270 pf=0.92 kW=4.354795 Daily=RES1_25
New Load.BT_337608678_339002059_2 Bus1=node_418402143.2.4 Phases=1 Model=8 zipv=(0.5,0,0.5,1,0,0,0) kv=0.1270 pf=0.92 kW=4.354795 Daily=RES1_25
New Load.BT_337608678_339002059_3 Bus1=node_418402143.3.4 Phases=1 Model=8 zipv=(0.5,0,0.5,1,0,0,0) kv=0.1270 pf=0.92 kW=4.354795 Daily=RES1_25
New Load.BT_338521839_339000432_1 Bus1=node_419927457.1.4 Phases=1 Model=8 zipv=(0.5,0,0.5,1,0,0,0) kv=0.1200 pf=0.92 kW=0.187671 Daily=RES1_25
New Load.BT_338521839_339000432_2 Bus1=node_419927457.2.4 Phases=1 Model=8 zipv=(0.5,0,0.5,1,0,0,0) kv=0.1200 pf=0.92 kW=0.187671 Daily=RES1_25
New Load.BT_338060732_338961483_1 Bus1=node_419207304.1.4 Phases=1 Model=8 zipv=(0.5,0,0.5,1,0,0,0) kv=0.1200 pf=0.92 kW=0.666438 Daily=RES1_25
New Load.BT_338060732_338961483_2 Bus1=node_419207304.2.4 Phases=1 Model=8 zipv=(0.5,0,0.5,1,0,0,0) kv=0.1200 pf=0.92 kW=0.666438 Daily=RES1_25
New Load.BT_337609593_339027728_1 Bus1=node_419242645.1.4 Phases=1 Model=8 zipv=(0.5,0,0.5,1,0,0,0) kv=0.1200 pf=0.92 kW=0.099315 Daily=RES1_25
New Load.BT_337609593_339027728_2 Bus1=node_419242645.2.4 Phases=1 Model=8 zipv=(0.5,0,0.5,1,0,0,0) kv=0.1200 pf=0.92 kW=0.099315 Daily=RES1_25
New Load.BT_336910926_338963929_1 Bus1=node_418364369.1.4 Phases=1 Model=8 zipv=(0.5,0,0.5,1,0,0,0) kv=0.1200 pf=0.92 kW=8.906849 Daily=RES1_25
New Load.BT_336910926_338963929_2 Bus1=node_418364369.2.4 Phases=1 Model=8 zipv=(0.5,0,0.5,1,0,0,0) kv=0.1200 pf=0.92 kW=8.906849 Daily=RES1_25
New Load.BT_545604244_545604247_1 Bus1=node_466148954.1.4 Phases=1 Model=8 zipv=(0.5,0,0.5,1,0,0,0) kv=0.1200 pf=0.92 kW=4.436301 Daily=RES1_25
New Load.BT_545604244_545604247_2 Bus1=node_466148954.2.4 Phases=1 Model=8 zipv=(0.5,0,0.5,1,0,0,0) kv=0.1200 pf=0.92 kW=4.436301 Daily=RES1_25
New Load.BT_337852419_338963930_1 Bus1=node_418377509.1.4 Phases=1 Model=8 zipv=(0.5,0,0.5,1,0,0,0) kv=0.1270 pf=0.92 kW=6.221918 Daily=RES1_25
New Load.BT_337852419_338963930_2 Bus1=node_418377509.2.4 Phases=1 Model=8 zipv=(0.5,0,0.5,1,0,0,0) kv=0.1270 pf=0.92 kW=6.221918 Daily=RES1_25
New Load.BT_337852419_338963930_3 Bus1=node_418377509.3.4 Phases=1 Model=8 zipv=(0.5,0,0.5,1,0,0,0) kv=0.1270 pf=0.92 kW=6.221918 Daily=RES1_25
New Load.BT_338286805_1991192210_1 Bus1=node_418401021.1.4 Phases=1 Model=8 zipv=(0.5,0,0.5,1,0,0,0) kv=0.1270 pf=0.92 kW=6.842009 Daily=RES1_25
New Load.BT_338286805_1991192210_2 Bus1=node_418401021.2.4 Phases=1 Model=8 zipv=(0.5,0,0.5,1,0,0,0) kv=0.1270 pf=0.92 kW=6.842009 Daily=RES1_25
New Load.BT_338286805_1991192210_3 Bus1=node_418401021.3.4 Phases=1 Model=8 zipv=(0.5,0,0.5,1,0,0,0) kv=0.1270 pf=0.92 kW=6.842009 Daily=RES1_25
New Load.BT_338523166_2670404320_1 Bus1=node_418315556.1.4 Phases=1 Model=8 zipv=(0.5,0,0.5,1,0,0,0) kv=0.1200 pf=0.92 kW=5.030822 Daily=RES1_25
New Load.BT_338523166_2670404320_2 Bus1=node_418315556.2.4 Phases=1 Model=8 zipv=(0.5,0,0.5,1,0,0,0) kv=0.1200 pf=0.92 kW=5.030822 Daily=RES1_25
New Load.BT_337610398_339050191_1 Bus1=node_418294831.1.4 Phases=1 Model=8 zipv=(0.5,0,0.5,1,0,0,0) kv=0.1270 pf=0.92 kW=4.286301 Daily=RES1_25
New Load.BT_337610398_339050191_2 Bus1=node_418294831.2.4 Phases=1 Model=8 zipv=(0.5,0,0.5,1,0,0,0) kv=0.1270 pf=0.92 kW=4.286301 Daily=RES1_25
New Load.BT_337610398_339050191_3 Bus1=node_418294831.3.4 Phases=1 Model=8 zipv=(0.5,0,0.5,1,0,0,0) kv=0.1270 pf=0.92 kW=4.286301 Daily=RES1_25
New Load.BT_338059664_339001923_1 Bus1=node_418334373.1.4 Phases=1 Model=8 zipv=(0.5,0,0.5,1,0,0,0) kv=0.1270 pf=0.92 kW=6.773059 Daily=RES1_25
New Load.BT_338059664_339001923_2 Bus1=node_418334373.2.4 Phases=1 Model=8 zipv=(0.5,0,0.5,1,0,0,0) kv=0.1270 pf=0.92 kW=6.773059 Daily=RES1_25
New Load.BT_338059664_339001923_3 Bus1=node_418334373.3.4 Phases=1 Model=8 zipv=(0.5,0,0.5,1,0,0,0) kv=0.1270 pf=0.92 kW=6.773059 Daily=RES1_25
New Load.BT_338287333_339025341_1 Bus1=node_418380455.1.4 Phases=1 Model=8 zipv=(0.5,0,0.5,1,0,0,0) kv=0.1270 pf=0.92 kW=1.803196 Daily=RES1_25
New Load.BT_338287333_339025341_2 Bus1=node_418380455.2.4 Phases=1 Model=8 zipv=(0.5,0,0.5,1,0,0,0) kv=0.1270 pf=0.92 kW=1.803196 Daily=RES1_25
New Load.BT_338287333_339025341_3 Bus1=node_418380455.3.4 Phases=1 Model=8 zipv=(0.5,0,0.5,1,0,0,0) kv=0.1270 pf=0.92 kW=1.803196 Daily=RES1_25
New Load.BT_336911162_339025398_1 Bus1=node_418313786.1.4 Phases=1 Model=8 zipv=(0.5,0,0.5,1,0,0,0) kv=0.1270 pf=0.92 kW=2.687215 Daily=RES1_25
New Load.BT_336911162_339025398_2 Bus1=node_418313786.2.4 Phases=1 Model=8 zipv=(0.5,0,0.5,1,0,0,0) kv=0.1270 pf=0.92 kW=2.687215 Daily=RES1_25
New Load.BT_336911162_339025398_3 Bus1=node_418313786.3.4 Phases=1 Model=8 zipv=(0.5,0,0.5,1,0,0,0) kv=0.1270 pf=0.92 kW=2.687215 Daily=RES1_25
New Load.BT_338058701_339026640_1 Bus1=node_419244484.1.4 Phases=1 Model=8 zipv=(0.5,0,0.5,1,0,0,0) kv=0.1200 pf=0.92 kW=0.208904 Daily=RES1_25
New Load.BT_338058701_339026640_2 Bus1=node_419244484.2.4 Phases=1 Model=8 zipv=(0.5,0,0.5,1,0,0,0) kv=0.1200 pf=0.92 kW=0.208904 Daily=RES1_25
New Load.BT_338522757_338960106_1 Bus1=node_419592360.1.4 Phases=1 Model=8 zipv=(0.5,0,0.5,1,0,0,0) kv=0.1200 pf=0.92 kW=0.182192 Daily=RES1_25
New Load.BT_338522757_338960106_2 Bus1=node_419592360.2.4 Phases=1 Model=8 zipv=(0.5,0,0.5,1,0,0,0) kv=0.1200 pf=0.92 kW=0.182192 Daily=RES1_25
New Load.BT_338288126_338999731_1 Bus1=node_419623510.1.4 Phases=1 Model=8 zipv=(0.5,0,0.5,1,0,0,0) kv=0.1200 pf=0.92 kW=0.110959 Daily=RES1_25
New Load.BT_338288126_338999731_2 Bus1=node_419623510.2.4 Phases=1 Model=8 zipv=(0.5,0,0.5,1,0,0,0) kv=0.1200 pf=0.92 kW=0.110959 Daily=RES1_25
New Load.BT_324790476_325376170_1 Bus1=node_419902371.1.4 Phases=1 Model=8 zipv=(0.5,0,0.5,1,0,0,0) kv=0.1270 pf=0.92 kW=2.559817 Daily=RES1_25
New Load.BT_324790476_325376170_2 Bus1=node_419902371.2.4 Phases=1 Model=8 zipv=(0.5,0,0.5,1,0,0,0) kv=0.1270 pf=0.92 kW=2.559817 Daily=RES1_25
New Load.BT_324790476_325376170_3 Bus1=node_419902371.3.4 Phases=1 Model=8 zipv=(0.5,0,0.5,1,0,0,0) kv=0.1270 pf=0.92 kW=2.559817 Daily=RES1_25
New Load.BT_324789699_325346478_1 Bus1=node_418107791.1.4 Phases=1 Model=8 zipv=(0.5,0,0.5,1,0,0,0) kv=0.1270 pf=0.92 kW=3.329224 Daily=RES1_25
New Load.BT_324789699_325346478_2 Bus1=node_418107791.2.4 Phases=1 Model=8 zipv=(0.5,0,0.5,1,0,0,0) kv=0.1270 pf=0.92 kW=3.329224 Daily=RES1_25
New Load.BT_324789699_325346478_3 Bus1=node_418107791.3.4 Phases=1 Model=8 zipv=(0.5,0,0.5,1,0,0,0) kv=0.1270 pf=0.92 kW=3.329224 Daily=RES1_25
New Load.BT_338061178_338999744_1 Bus1=node_423635143.1.4 Phases=1 Model=8 zipv=(0.5,0,0.5,1,0,0,0) kv=0.1200 pf=0.92 kW=0.126027 Daily=RES1_25
New Load.BT_338061178_338999744_2 Bus1=node_423635143.2.4 Phases=1 Model=8 zipv=(0.5,0,0.5,1,0,0,0) kv=0.1200 pf=0.92 kW=0.126027 Daily=RES1_25
New Load.BT_336910824_338960336_1 Bus1=node_419345923.1.4 Phases=1 Model=8 zipv=(0.5,0,0.5,1,0,0,0) kv=0.1200 pf=0.92 kW=0.158219 Daily=RES1_25
New Load.BT_336910824_338960336_2 Bus1=node_419345923.2.4 Phases=1 Model=8 zipv=(0.5,0,0.5,1,0,0,0) kv=0.1200 pf=0.92 kW=0.158219 Daily=RES1_25
New Load.BT_337852118_1385313223_1 Bus1=node_418378250.1.4 Phases=1 Model=8 zipv=(0.5,0,0.5,1,0,0,0) kv=0.1270 pf=0.92 kW=6.843836 Daily=RES1_25
New Load.BT_337852118_1385313223_2 Bus1=node_418378250.2.4 Phases=1 Model=8 zipv=(0.5,0,0.5,1,0,0,0) kv=0.1270 pf=0.92 kW=6.843836 Daily=RES1_25
New Load.BT_337852118_1385313223_3 Bus1=node_418378250.3.4 Phases=1 Model=8 zipv=(0.5,0,0.5,1,0,0,0) kv=0.1270 pf=0.92 kW=6.843836 Daily=RES1_25
New Load.BT_338058809_633326354_1 Bus1=node_467249978.1.4 Phases=1 Model=8 zipv=(0.5,0,0.5,1,0,0,0) kv=0.1200 pf=0.92 kW=3.913014 Daily=RES1_25
New Load.BT_338058809_633326354_2 Bus1=node_467249978.2.4 Phases=1 Model=8 zipv=(0.5,0,0.5,1,0,0,0) kv=0.1200 pf=0.92 kW=3.913014 Daily=RES1_25
New Load.BT_337855811_2640539261_1 Bus1=node_418401015.1.4 Phases=1 Model=8 zipv=(0.5,0,0.5,1,0,0,0) kv=0.1270 pf=0.92 kW=3.082192 Daily=RES1_25
New Load.BT_337855811_2640539261_2 Bus1=node_418401015.2.4 Phases=1 Model=8 zipv=(0.5,0,0.5,1,0,0,0) kv=0.1270 pf=0.92 kW=3.082192 Daily=RES1_25
New Load.BT_337855811_2640539261_3 Bus1=node_418401015.3.4 Phases=1 Model=8 zipv=(0.5,0,0.5,1,0,0,0) kv=0.1270 pf=0.92 kW=3.082192 Daily=RES1_25
New Load.BT_337608630_339051683_1 Bus1=node_419347285.1.4 Phases=1 Model=8 zipv=(0.5,0,0.5,1,0,0,0) kv=0.1200 pf=0.92 kW=0.133562 Daily=RES1_25
New Load.BT_337608630_339051683_2 Bus1=node_419347285.2.4 Phases=1 Model=8 zipv=(0.5,0,0.5,1,0,0,0) kv=0.1200 pf=0.92 kW=0.133562 Daily=RES1_25
New Load.BT_338059751_339025422_1 Bus1=node_418315325.1.4 Phases=1 Model=8 zipv=(0.5,0,0.5,1,0,0,0) kv=0.1270 pf=0.92 kW=3.638813 Daily=RES1_25
...

! --- cargas de media tensao (UCMT_tab) ---
New Load.MT_node_1686493319_0 Bus1=node_1686493319.1.2.3 Phases=3 Conn=wye Model=8 zipv=(0.5,0,0.5,1,0,0,0) kv=13.8000 pf=0.92 kW=349.0411 Daily=MT1_1
New Load.MT_node_431558462_2 Bus1=node_431558462.1.2.3 Phases=3 Conn=wye Model=8 zipv=(0.5,0,0.5,1,0,0,0) kv=13.8000 pf=0.92 kW=38.3562 Daily=MT1_1
New Load.MT_node_122754873_3 Bus1=node_122754873.1.2.3 Phases=3 Conn=wye Model=8 zipv=(0.5,0,0.5,1,0,0,0) kv=13.8000 pf=0.92 kW=72.6205 Daily=MT1_1
New Load.MT_node_122754913_4 Bus1=node_122754913.1.2.3 Phases=3 Conn=wye Model=8 zipv=(0.5,0,0.5,1,0,0,0) kv=13.8000 pf=0.92 kW=31.4521 Daily=MT1_1
New Load.MT_node_123244246_5 Bus1=node_123244246.1.2.3 Phases=3 Conn=wye Model=8 zipv=(0.5,0,0.5,1,0,0,0) kv=13.8000 pf=0.92 kW=7.9192 Daily=MT1_1
New Load.MT_node_122755593_6 Bus1=node_122755593.1.2.3 Phases=3 Conn=wye Model=8 zipv=(0.5,0,0.5,1,0,0,0) kv=13.8000 pf=0.92 kW=5.5603 Daily=MT1_1
New Load.MT_node_122754618_7 Bus1=node_122754618.1.2.3 Phases=3 Conn=wye Model=8 zipv=(0.5,0,0.5,1,0,0,0) kv=13.8000 pf=0.92 kW=3.2575 Daily=MT1_1
New Load.MT_node_1400363694_9 Bus1=node_1400363694.1.2.3 Phases=3 Conn=wye Model=8 zipv=(0.5,0,0.5,1,0,0,0) kv=13.8000 pf=0.92 kW=52.2603 Daily=MT1_1
New Load.MT_node_122756098_10 Bus1=node_122756098.1.2.3 Phases=3 Conn=wye Model=8 zipv=(0.5,0,0.5,1,0,0,0) kv=13.8000 pf=0.92 kW=79.4164 Daily=MT1_1
